*SPEF "1481-1998"
*DESIGN "top"
*DATE "Sun Dec 20 18:28:01 2020"
*VENDOR "Synopsys, Inc."
*PROGRAM "icc_shell"
*VERSION "O-2018.06-SP4"
*DESIGN_FLOW "PIN_CAP NONE"
*DIVIDER /
*DELIMITER :
*BUS_DELIMITER [ ]
*T_UNIT 1 NS
*C_UNIT 1 FF
*R_UNIT 1 OHM
*L_UNIT 1 HENRY

*NAME_MAP
*1 R[5]
*2 R[4]
*3 R[3]
*4 R[2]
*5 R[1]
*6 R[0]
*7 VDD
*8 VSS
*9 S1[5]
*10 S1[4]
*11 S1[3]
*12 S1[2]
*13 S1[1]
*14 S1[0]
*15 R[7]
*16 R[6]
*17 S2[5]
*18 S2[4]
*19 S2[3]
*20 S2[2]
*21 S2[1]
*22 S2[0]
*23 S1[7]
*24 S1[6]
*25 AddressR[5]
*26 AddressR[4]
*27 AddressR[3]
*28 AddressR[2]
*29 AddressR[1]
*30 AddressR[0]
*31 S2[7]
*32 S2[6]
*33 AddressS1[5]
*34 AddressS1[4]
*35 AddressS1[3]
*36 AddressS1[2]
*37 AddressS1[1]
*38 AddressS1[0]
*39 AddressR[7]
*40 AddressR[6]
*41 AddressS2[3]
*42 AddressS2[2]
*43 AddressS2[1]
*44 AddressS2[0]
*45 AddressS1[9]
*46 AddressS1[8]
*47 AddressS1[7]
*48 AddressS1[6]
*49 BestDist[1]
*50 BestDist[0]
*51 AddressS2[9]
*52 AddressS2[8]
*53 AddressS2[7]
*54 AddressS2[6]
*55 AddressS2[5]
*56 AddressS2[4]
*57 motionX[1]
*58 motionX[0]
*59 BestDist[7]
*60 BestDist[6]
*61 BestDist[5]
*62 BestDist[4]
*63 BestDist[3]
*64 BestDist[2]
*65 start
*66 clock
*67 motionY[3]
*68 motionY[2]
*69 motionY[1]
*70 motionY[0]
*71 motionX[3]
*72 motionX[2]
*73 PEOut\[127\]
*74 comp_u/U55
*75 comp_u/U12
*76 pe15/add_16/U1_7
*77 pe15/Accumulate_reg\[7\]
*78 comp_u/n52
*79 comp_u/U48
*80 comp_u/U39
*81 PEOut\[126\]
*82 comp_u/U54
*83 comp_u/U3
*84 comp_u/U13
*85 pe15/add_16/U1_6
*86 pe15/Accumulate_reg\[6\]
*87 comp_u/n51
*88 comp_u/U40
*89 PEOut\[125\]
*90 comp_u/U53
*91 comp_u/U14
*92 pe15/add_16/U1_5
*93 pe15/Accumulate_reg\[5\]
*94 comp_u/n50
*95 comp_u/U35
*96 PEOut\[124\]
*97 comp_u/U52
*98 comp_u/U15
*99 pe15/add_16/U1_4
*100 pe15/Accumulate_reg\[4\]
*101 comp_u/n49
*102 comp_u/U47
*103 PEOut\[123\]
*104 comp_u/U51
*105 comp_u/U16
*106 pe15/add_16/U1_3
*107 pe15/Accumulate_reg\[3\]
*108 comp_u/n48
*109 comp_u/U34
*110 PEOut\[122\]
*111 comp_u/U50
*112 comp_u/U17
*113 pe15/add_16/U1_2
*114 pe15/Accumulate_reg\[2\]
*115 comp_u/n47
*116 comp_u/U46
*117 PEOut\[121\]
*118 comp_u/U49
*119 comp_u/U18
*120 pe15/add_16/U1_1
*121 pe15/Accumulate_reg\[1\]
*122 comp_u/n46
*123 comp_u/U45
*124 comp_u/n44
*125 comp_u/BestDist_reg\[7\]
*126 comp_u/BestDist_reg\[4\]
*127 comp_u/n41
*128 comp_u/n42
*129 comp_u/BestDist_reg\[3\]
*130 comp_u/n40
*131 comp_u/n38
*132 comp_u/U37
*133 comp_u/n39
*134 comp_u/BestDist_reg\[1\]
*135 comp_u/BestDist_reg\[2\]
*136 comp_u/n31
*137 comp_u/U10
*138 comp_u/U11
*139 comp_u/U33
*140 comp_u/U6
*141 comp_u/U5
*142 comp_u/U27
*143 comp_u/U9
*144 comp_u/U7
*145 comp_u/U19
*146 comp_u/U2
*147 comp_u/n28
*148 comp_u/n43
*149 comp_u/BestDist_reg\[6\]
*150 comp_u/BestDist_reg\[5\]
*151 comp_u/n45
*152 comp_u/N16
*153 comp_u/U26
*154 comp_u/U23
*155 comp_u/n6
*156 comp_u/U21
*157 comp_u/n1
*158 PEOut\[120\]
*159 pe15/add_16/U2
*160 pe15/add_16/U1
*161 pe15/Accumulate_reg\[0\]
*162 comp_u/n29
*163 comp_u/BestDist_reg\[0\]
*164 comp_u/motionY_reg\[0\]
*165 comp_u/n15
*166 VectorY\[0\]
*167 ctl_u/U74
*168 ctl_u/U59
*169 ctl_u/count_reg\[8\]
*170 comp_u/n5
*171 comp_u/n9
*172 comp_u/U31
*173 comp_u/n10
*174 comp_u/U30
*175 comp_u/n7
*176 comp_u/U29
*177 comp_u/motionX_reg\[0\]
*178 comp_u/n11
*179 CompStart
*180 ctl_u/U58
*181 ctl_u/U42
*182 comp_u/U1
*183 comp_u/motionX_reg\[1\]
*184 comp_u/n12
*185 VectorX\[1\]
*186 ctl_u/U63
*187 comp_u/n27
*188 comp_u/n19
*189 pe0/Rpipe_reg\[3\]
*190 pe0/Rpipe_reg\[4\]
*191 pe0/Rpipe_reg\[5\]
*192 pe0/Rpipe_reg\[6\]
*193 pe0/Rpipe_reg\[7\]
*194 pe0/Accumulate_reg\[4\]
*195 pe0/Accumulate_reg\[5\]
*196 pe0/Accumulate_reg\[6\]
*197 pe0/Accumulate_reg\[7\]
*198 pe0/Accumulate_reg\[0\]
*199 pe0/Rpipe_reg\[0\]
*200 pe0/Rpipe_reg\[1\]
*201 pe0/Rpipe_reg\[2\]
*202 pe1/Rpipe_reg\[3\]
*203 pe1/Rpipe_reg\[4\]
*204 pe1/Rpipe_reg\[5\]
*205 pe1/Rpipe_reg\[6\]
*206 pe1/Rpipe_reg\[7\]
*207 pe0/Accumulate_reg\[1\]
*208 pe0/Accumulate_reg\[2\]
*209 pe0/Accumulate_reg\[3\]
*210 pe1/Accumulate_reg\[3\]
*211 pe1/Accumulate_reg\[4\]
*212 pe1/Accumulate_reg\[5\]
*213 pe1/Accumulate_reg\[6\]
*214 pe1/Accumulate_reg\[7\]
*215 pe1/Rpipe_reg\[0\]
*216 pe1/Rpipe_reg\[1\]
*217 pe1/Rpipe_reg\[2\]
*218 pe2/Rpipe_reg\[3\]
*219 pe2/Rpipe_reg\[4\]
*220 pe2/Rpipe_reg\[5\]
*221 pe2/Rpipe_reg\[6\]
*222 pe2/Rpipe_reg\[7\]
*223 pe1/Accumulate_reg\[0\]
*224 pe1/Accumulate_reg\[2\]
*225 pe1/Accumulate_reg\[1\]
*226 pe2/Accumulate_reg\[4\]
*227 pe2/Accumulate_reg\[5\]
*228 pe2/Accumulate_reg\[6\]
*229 pe2/Accumulate_reg\[7\]
*230 pe2/Accumulate_reg\[0\]
*231 pe2/Rpipe_reg\[0\]
*232 pe2/Rpipe_reg\[1\]
*233 pe2/Rpipe_reg\[2\]
*234 pe3/Rpipe_reg\[3\]
*235 pe3/Rpipe_reg\[4\]
*236 pe3/Rpipe_reg\[5\]
*237 pe3/Rpipe_reg\[6\]
*238 pe3/Rpipe_reg\[7\]
*239 pe2/Accumulate_reg\[1\]
*240 pe2/Accumulate_reg\[2\]
*241 pe2/Accumulate_reg\[3\]
*242 pe3/Accumulate_reg\[0\]
*243 pe3/Accumulate_reg\[2\]
*244 pe3/Accumulate_reg\[4\]
*245 pe3/Accumulate_reg\[6\]
*246 pe3/Accumulate_reg\[7\]
*247 pe3/Rpipe_reg\[0\]
*248 pe3/Rpipe_reg\[1\]
*249 pe3/Rpipe_reg\[2\]
*250 pe4/Rpipe_reg\[3\]
*251 pe4/Rpipe_reg\[4\]
*252 pe4/Rpipe_reg\[5\]
*253 pe4/Rpipe_reg\[6\]
*254 pe4/Rpipe_reg\[7\]
*255 pe3/Accumulate_reg\[5\]
*256 pe3/Accumulate_reg\[3\]
*257 pe3/Accumulate_reg\[1\]
*258 pe4/Accumulate_reg\[4\]
*259 pe4/Accumulate_reg\[5\]
*260 pe4/Accumulate_reg\[6\]
*261 pe4/Accumulate_reg\[7\]
*262 pe4/Accumulate_reg\[0\]
*263 pe4/Rpipe_reg\[0\]
*264 pe4/Rpipe_reg\[1\]
*265 pe4/Rpipe_reg\[2\]
*266 pe5/Rpipe_reg\[3\]
*267 pe5/Rpipe_reg\[4\]
*268 pe5/Rpipe_reg\[5\]
*269 pe5/Rpipe_reg\[6\]
*270 pe5/Rpipe_reg\[7\]
*271 pe4/Accumulate_reg\[1\]
*272 pe4/Accumulate_reg\[2\]
*273 pe4/Accumulate_reg\[3\]
*274 pe5/Accumulate_reg\[4\]
*275 pe5/Accumulate_reg\[5\]
*276 pe5/Accumulate_reg\[6\]
*277 pe5/Accumulate_reg\[7\]
*278 pe5/Accumulate_reg\[0\]
*279 pe5/Rpipe_reg\[0\]
*280 pe5/Rpipe_reg\[1\]
*281 pe5/Rpipe_reg\[2\]
*282 pe6/Rpipe_reg\[3\]
*283 pe6/Rpipe_reg\[4\]
*284 pe6/Rpipe_reg\[5\]
*285 pe6/Rpipe_reg\[6\]
*286 pe6/Rpipe_reg\[7\]
*287 pe5/Accumulate_reg\[1\]
*288 pe5/Accumulate_reg\[2\]
*289 pe5/Accumulate_reg\[3\]
*290 pe6/Accumulate_reg\[4\]
*291 pe6/Accumulate_reg\[5\]
*292 pe6/Accumulate_reg\[6\]
*293 pe6/Accumulate_reg\[7\]
*294 pe6/Accumulate_reg\[0\]
*295 pe6/Rpipe_reg\[0\]
*296 pe6/Rpipe_reg\[1\]
*297 pe6/Rpipe_reg\[2\]
*298 pe7/Rpipe_reg\[3\]
*299 pe7/Rpipe_reg\[4\]
*300 pe7/Rpipe_reg\[5\]
*301 pe7/Rpipe_reg\[6\]
*302 pe7/Rpipe_reg\[7\]
*303 pe6/Accumulate_reg\[1\]
*304 pe6/Accumulate_reg\[2\]
*305 pe6/Accumulate_reg\[3\]
*306 pe7/Accumulate_reg\[4\]
*307 pe7/Accumulate_reg\[5\]
*308 pe7/Accumulate_reg\[6\]
*309 pe7/Accumulate_reg\[7\]
*310 pe7/Accumulate_reg\[0\]
*311 pe7/Rpipe_reg\[0\]
*312 pe7/Rpipe_reg\[1\]
*313 pe7/Rpipe_reg\[2\]
*314 pe8/Rpipe_reg\[3\]
*315 pe8/Rpipe_reg\[4\]
*316 pe8/Rpipe_reg\[5\]
*317 pe8/Rpipe_reg\[6\]
*318 pe8/Rpipe_reg\[7\]
*319 pe7/Accumulate_reg\[1\]
*320 pe7/Accumulate_reg\[2\]
*321 pe7/Accumulate_reg\[3\]
*322 pe8/Accumulate_reg\[4\]
*323 pe8/Accumulate_reg\[5\]
*324 pe8/Accumulate_reg\[6\]
*325 pe8/Accumulate_reg\[7\]
*326 pe8/Accumulate_reg\[0\]
*327 pe8/Rpipe_reg\[0\]
*328 pe8/Rpipe_reg\[1\]
*329 pe8/Rpipe_reg\[2\]
*330 pe9/Rpipe_reg\[3\]
*331 pe9/Rpipe_reg\[4\]
*332 pe9/Rpipe_reg\[5\]
*333 pe9/Rpipe_reg\[6\]
*334 pe9/Rpipe_reg\[7\]
*335 pe8/Accumulate_reg\[1\]
*336 pe8/Accumulate_reg\[2\]
*337 pe8/Accumulate_reg\[3\]
*338 pe9/Accumulate_reg\[4\]
*339 pe9/Accumulate_reg\[5\]
*340 pe9/Accumulate_reg\[6\]
*341 pe9/Accumulate_reg\[7\]
*342 pe9/Accumulate_reg\[0\]
*343 pe9/Rpipe_reg\[0\]
*344 pe9/Rpipe_reg\[1\]
*345 pe9/Rpipe_reg\[2\]
*346 pe10/Rpipe_reg\[3\]
*347 pe10/Rpipe_reg\[4\]
*348 pe10/Rpipe_reg\[5\]
*349 pe10/Rpipe_reg\[6\]
*350 pe10/Rpipe_reg\[7\]
*351 pe9/Accumulate_reg\[1\]
*352 pe9/Accumulate_reg\[2\]
*353 pe9/Accumulate_reg\[3\]
*354 pe10/Accumulate_reg\[4\]
*355 pe10/Accumulate_reg\[5\]
*356 pe10/Accumulate_reg\[6\]
*357 pe10/Accumulate_reg\[7\]
*358 pe10/Accumulate_reg\[0\]
*359 pe10/Rpipe_reg\[0\]
*360 pe10/Rpipe_reg\[1\]
*361 pe10/Rpipe_reg\[2\]
*362 pe11/Rpipe_reg\[3\]
*363 pe11/Rpipe_reg\[4\]
*364 pe11/Rpipe_reg\[5\]
*365 pe11/Rpipe_reg\[6\]
*366 pe11/Rpipe_reg\[7\]
*367 pe10/Accumulate_reg\[1\]
*368 pe10/Accumulate_reg\[2\]
*369 pe10/Accumulate_reg\[3\]
*370 pe11/Accumulate_reg\[4\]
*371 pe11/Accumulate_reg\[5\]
*372 pe11/Accumulate_reg\[6\]
*373 pe11/Accumulate_reg\[7\]
*374 pe11/Accumulate_reg\[0\]
*375 pe11/Rpipe_reg\[0\]
*376 pe11/Rpipe_reg\[1\]
*377 pe11/Rpipe_reg\[2\]
*378 pe12/Rpipe_reg\[3\]
*379 pe12/Rpipe_reg\[4\]
*380 pe12/Rpipe_reg\[5\]
*381 pe12/Rpipe_reg\[6\]
*382 pe12/Rpipe_reg\[7\]
*383 pe11/Accumulate_reg\[1\]
*384 pe11/Accumulate_reg\[2\]
*385 pe11/Accumulate_reg\[3\]
*386 pe12/Accumulate_reg\[4\]
*387 pe12/Accumulate_reg\[5\]
*388 pe12/Accumulate_reg\[6\]
*389 pe12/Accumulate_reg\[7\]
*390 pe12/Accumulate_reg\[0\]
*391 pe12/Rpipe_reg\[0\]
*392 pe12/Rpipe_reg\[1\]
*393 pe12/Rpipe_reg\[2\]
*394 pe13/Rpipe_reg\[2\]
*395 pe13/Rpipe_reg\[3\]
*396 pe13/Rpipe_reg\[4\]
*397 pe13/Rpipe_reg\[6\]
*398 pe13/Rpipe_reg\[7\]
*399 pe12/Accumulate_reg\[1\]
*400 pe12/Accumulate_reg\[2\]
*401 pe12/Accumulate_reg\[3\]
*402 pe13/Accumulate_reg\[1\]
*403 pe13/Rpipe_reg\[5\]
*404 pe13/Accumulate_reg\[6\]
*405 pe13/Accumulate_reg\[7\]
*406 pe13/Accumulate_reg\[3\]
*407 pe13/Accumulate_reg\[4\]
*408 pe13/Rpipe_reg\[0\]
*409 pe13/Rpipe_reg\[1\]
*410 pe14/Rpipe_reg\[3\]
*411 pe14/Rpipe_reg\[4\]
*412 pe14/Rpipe_reg\[5\]
*413 pe14/Rpipe_reg\[6\]
*414 pe14/Rpipe_reg\[7\]
*415 pe13/Accumulate_reg\[5\]
*416 pe13/Accumulate_reg\[0\]
*417 pe13/Accumulate_reg\[2\]
*418 pe14/Accumulate_reg\[4\]
*419 pe14/Accumulate_reg\[5\]
*420 pe14/Accumulate_reg\[6\]
*421 pe14/Accumulate_reg\[7\]
*422 pe14/Accumulate_reg\[0\]
*423 pe14/Rpipe_reg\[0\]
*424 pe14/Rpipe_reg\[1\]
*425 pe14/Rpipe_reg\[2\]
*426 pe14/Accumulate_reg\[1\]
*427 pe14/Accumulate_reg\[2\]
*428 pe14/Accumulate_reg\[3\]
*429 ctl_u/count_reg\[7\]
*430 ctl_u/count_reg\[6\]
*431 ctl_u/count_reg\[5\]
*432 ctl_u/count_reg\[4\]
*433 ctl_u/count_reg\[12\]
*434 ctl_u/count_reg\[11\]
*435 ctl_u/count_reg\[0\]
*436 ctl_u/count_reg\[2\]
*437 ctl_u/count_reg\[3\]
*438 ctl_u/count_reg\[1\]
*439 ctl_u/count_reg\[9\]
*440 ctl_u/count_reg\[10\]
*441 comp_u/motionY_reg\[3\]
*442 comp_u/motionY_reg\[2\]
*443 comp_u/motionX_reg\[2\]
*444 comp_u/motionX_reg\[3\]
*445 comp_u/motionY_reg\[1\]
*446 comp_u/n17
*447 comp_u/n13
*448 comp_u/n14
*449 comp_u/n16
*450 comp_u/n18
*451 comp_u/n26
*452 comp_u/n24
*453 comp_u/n22
*454 comp_u/n21
*455 comp_u/n20
*456 comp_u/n25
*457 comp_u/n23
*458 comp_u/n8
*459 comp_u/U24
*460 VectorY\[3\]
*461 ctl_u/U62
*462 VectorY\[2\]
*463 ctl_u/U71
*464 VectorY\[1\]
*465 VectorX\[3\]
*466 ctl_u/U82
*467 VectorX\[2\]
*468 ctl_u/U60
*469 ctl_u/N16
*470 ctl_u/add_18/U1
*471 ctl_u/count\[12\]
*472 ctl_u/U12
*473 ctl_u/add_18/carry\[12\]
*474 ctl_u/add_18/U1_1_11
*475 ctl_u/N6
*476 ctl_u/add_18/U1_1_2
*477 ctl_u/add_18/carry\[2\]
*478 ctl_u/add_18/U1_1_1
*479 ctl_u/U4
*480 ctl_u/U5
*481 ctl_u/U81
*482 ctl_u/U10
*483 ctl_u/add_18/carry\[3\]
*484 ctl_u/add_18/U1_1_3
*485 ctl_u/N5
*486 ctl_u/U33
*487 ctl_u/N12
*488 ctl_u/add_18/U1_1_8
*489 ctl_u/add_18/carry\[8\]
*490 ctl_u/add_18/U1_1_7
*491 ctl_u/count\[8\]
*492 ctl_u/U89
*493 ctl_u/U88
*494 ctl_u/U64
*495 ctl_u/add_18/carry\[9\]
*496 ctl_u/add_18/U1_1_9
*497 ctl_u/N15
*498 ctl_u/add_18/carry\[11\]
*499 ctl_u/add_18/U1_1_10
*500 ctl_u/count\[11\]
*501 ctl_u/U41
*502 ctl_u/N14
*503 ctl_u/add_18/carry\[10\]
*504 ctl_u/count\[10\]
*505 ctl_u/U72
*506 ctl_u/U70
*507 ctl_u/N13
*508 ctl_u/count\[9\]
*509 ctl_u/U73
*510 ctl_u/N7
*511 ctl_u/U65
*512 AddressR\[3\]
*513 pe7/U14
*514 ctl_u/U47
*515 ctl_u/U43
*516 ctl_u/add_18/carry\[4\]
*517 ctl_u/add_18/U1_1_4
*518 ctl_u/N8
*519 ctl_u/add_18/carry\[5\]
*520 ctl_u/add_18/U1_1_5
*521 ctl_u/N9
*522 ctl_u/add_18/carry\[6\]
*523 ctl_u/add_18/U1_1_6
*524 ctl_u/N10
*525 ctl_u/add_18/carry\[7\]
*526 ctl_u/N11
*527 ctl_u/r114/carry\[1\]
*528 ctl_u/n64
*529 ctl_u/U86
*530 ctl_u/U1
*531 ctl_u/n61
*532 ctl_u/U85
*533 ctl_u/n26
*534 ctl_u/U61
*535 ctl_u/U17
*536 ctl_u/n63
*537 ctl_u/n40
*538 ctl_u/U84
*539 ctl_u/U27
*540 ctl_u/U36
*541 ctl_u/U45
*542 ctl_u/n36
*543 ctl_u/n72
*544 ctl_u/U83
*545 S1S2mux\[14\]
*546 pe14/U4
*547 S1S2mux\[6\]
*548 pe6/U3
*549 ctl_u/n69
*550 ctl_u/U79
*551 ctl_u/U75
*552 ctl_u/U46
*553 ctl_u/n70
*554 ctl_u/U50
*555 ctl_u/U28
*556 S1S2mux\[2\]
*557 pe2/U3
*558 ctl_u/r114/carry\[2\]
*559 ctl_u/n66
*560 ctl_u/n65
*561 ctl_u/r114/carry\[3\]
*562 ctl_u/n27
*563 ctl_u/n3
*564 ctl_u/n4
*565 ctl_u/n2
*566 ctl_u/n71
*567 ctl_u/n25
*568 ctl_u/n59
*569 ctl_u/n6
*570 ctl_u/n60
*571 S1S2mux\[12\]
*572 ctl_u/U53
*573 pe12/U27
*574 S1S2mux\[13\]
*575 pe13/U36
*576 S1S2mux\[11\]
*577 pe11/U3
*578 S1S2mux\[1\]
*579 ctl_u/U48
*580 pe1/U16
*581 ctl_u/n68
*582 ctl_u/U21
*583 S1S2mux\[8\]
*584 pe8/U4
*585 S1S2mux\[9\]
*586 pe9/U5
*587 ctl_u/n14
*588 ctl_u/U44
*589 ctl_u/n19
*590 S1S2mux\[10\]
*591 pe10/U4
*592 ctl_u/n53
*593 AddressR\[0\]
*594 U1
*595 ctl_u/n16
*596 ctl_u/n77
*597 S1S2mux\[3\]
*598 pe3/U8
*599 S1S2mux\[0\]
*600 ctl_u/U15
*601 pe0/U9
*602 ctl_u/n55
*603 ctl_u/n62
*604 S1S2mux\[4\]
*605 pe4/U4
*606 S1S2mux\[5\]
*607 pe5/U9
*608 pe15/add_16/carry\[1\]
*609 pe15/difference\[0\]
*610 pe15/U31
*611 pe15/U28
*612 pe15/N34
*613 pe15/add_16/carry\[2\]
*614 pe15/difference\[1\]
*615 pe15/U27
*616 pe15/U25
*617 pe15/N35
*618 pe15/add_16/carry\[3\]
*619 pe15/difference\[2\]
*620 pe15/U24
*621 pe15/U22
*622 pe15/N36
*623 pe15/add_16/carry\[4\]
*624 pe15/difference\[3\]
*625 pe15/U21
*626 pe15/U19
*627 pe15/N37
*628 pe15/add_16/carry\[5\]
*629 pe15/difference\[4\]
*630 pe15/U18
*631 pe15/U16
*632 pe15/N38
*633 pe15/add_16/carry\[6\]
*634 pe15/difference\[5\]
*635 pe15/U15
*636 pe15/U13
*637 pe15/N39
*638 pe15/add_16/carry\[7\]
*639 pe15/difference\[6\]
*640 pe15/U12
*641 pe15/U10
*642 pe15/N40
*643 pe15/Carry
*644 pe15/U29
*645 pe15/difference\[7\]
*646 pe15/U5
*647 pe15/U3
*648 pe15/N41
*649 pe15/n16
*650 pe15/U49
*651 pe15/U45
*652 pe15/U42
*653 Rpipe14\[3\]
*654 pe15/U48
*655 pe15/U35
*656 pe15/sub_14/carry\[3\]
*657 pe15/U32
*658 pe15/N9
*659 pe15/U33
*660 Rpipe14\[2\]
*661 pe15/U47
*662 pe15/sub_14/carry\[2\]
*663 pe15/U30
*664 pe15/N8
*665 Rpipe14\[6\]
*666 pe15/U46
*667 pe15/U40
*668 pe15/sub_14/carry\[6\]
*669 pe15/U26
*670 pe15/N12
*671 pe15/U34
*672 pe15/sub_14/carry\[1\]
*673 pe15/U44
*674 Rpipe14\[0\]
*675 Rpipe14\[1\]
*676 pe15/N7
*677 Rpipe14\[5\]
*678 pe15/U43
*679 pe15/sub_14/carry\[5\]
*680 pe15/U36
*681 pe15/N11
*682 pe15/N6
*683 Rpipe14\[4\]
*684 pe15/U41
*685 pe15/sub_14/carry\[4\]
*686 pe15/N10
*687 pe15/sub_14/carry\[7\]
*688 pe15/U23
*689 pe15/n20
*690 Rpipe14\[7\]
*691 pe15/N13
*692 pe15/n3
*693 pe15/U20
*694 pe15/U1
*695 pe15/n19
*696 pe15/n18
*697 pe4/U5
*698 pe3/U36
*699 pe2/U12
*700 pe1/U48
*701 pe0/U8
*702 pe6/U50
*703 pe7/U31
*704 pe5/U30
*705 pe14/U17
*706 pe9/U15
*707 pe11/U41
*708 pe12/U10
*709 pe13/U56
*710 pe8/U9
*711 pe10/U3
*712 pe15/AccumulateIn\[0\]
*713 pe15/AccumulateIn\[1\]
*714 pe15/AccumulateIn\[2\]
*715 pe3/U33
*716 pe2/U15
*717 pe1/U35
*718 pe7/U28
*719 pe14/U30
*720 pe0/U7
*721 pe4/U29
*722 pe5/U27
*723 pe9/U34
*724 pe11/U31
*725 pe6/U20
*726 pe12/U14
*727 pe13/U44
*728 pe8/U34
*729 pe10/U19
*730 pe15/AccumulateIn\[3\]
*731 pe3/U32
*732 pe2/U32
*733 pe1/U34
*734 pe5/U26
*735 pe14/U26
*736 pe7/U27
*737 pe0/U38
*738 pe9/U33
*739 pe4/U28
*740 pe11/U30
*741 pe6/U41
*742 pe10/U41
*743 pe8/U33
*744 pe13/U43
*745 pe12/U18
*746 pe15/AccumulateIn\[4\]
*747 pe3/U31
*748 pe2/U31
*749 pe1/U33
*750 pe4/U27
*751 pe7/U26
*752 pe14/U27
*753 pe5/U25
*754 pe0/U37
*755 pe6/U40
*756 pe9/U32
*757 pe11/U29
*758 pe13/U42
*759 pe8/U32
*760 pe10/U40
*761 pe12/U46
*762 pe15/AccumulateIn\[5\]
*763 pe4/U26
*764 pe2/U30
*765 pe1/U32
*766 pe3/U30
*767 pe14/U28
*768 pe5/U24
*769 pe7/U25
*770 pe0/U36
*771 pe6/U39
*772 pe9/U31
*773 pe11/U28
*774 pe10/U39
*775 pe8/U31
*776 pe13/U41
*777 pe12/U17
*778 pe15/AccumulateIn\[6\]
*779 pe3/U29
*780 pe2/U29
*781 pe1/U31
*782 pe7/U24
*783 pe14/U29
*784 pe5/U23
*785 pe4/U25
*786 pe0/U35
*787 pe9/U30
*788 pe6/U38
*789 pe11/U27
*790 pe13/U40
*791 pe10/U38
*792 pe8/U30
*793 pe12/U45
*794 pe15/AccumulateIn\[7\]
*795 pe14/add_16/carry\[1\]
*796 pe14/add_16/U2
*797 pe14/add_16/U1_1
*798 PEOut\[112\]
*799 pe14/add_16/U1
*800 pe14/difference\[0\]
*801 pe14/U25
*802 pe14/N34
*803 PEOut\[113\]
*804 pe14/add_16/carry\[2\]
*805 pe14/add_16/U1_2
*806 pe14/difference\[1\]
*807 pe14/U41
*808 pe14/U40
*809 pe14/N35
*810 PEOut\[114\]
*811 pe14/add_16/carry\[3\]
*812 pe14/add_16/U1_3
*813 pe14/difference\[2\]
*814 pe14/U42
*815 pe14/U3
*816 pe14/N36
*817 PEOut\[115\]
*818 pe14/add_16/carry\[4\]
*819 pe14/add_16/U1_4
*820 pe14/difference\[3\]
*821 pe14/U43
*822 pe14/N37
*823 PEOut\[116\]
*824 pe14/add_16/carry\[5\]
*825 pe14/add_16/U1_5
*826 pe14/difference\[4\]
*827 pe14/U44
*828 pe14/N38
*829 PEOut\[117\]
*830 pe14/add_16/carry\[6\]
*831 pe14/add_16/U1_6
*832 pe14/difference\[5\]
*833 pe14/U45
*834 pe14/N39
*835 PEOut\[118\]
*836 pe14/add_16/carry\[7\]
*837 pe14/add_16/U1_7
*838 pe14/difference\[6\]
*839 pe14/U46
*840 pe14/N40
*841 PEOut\[119\]
*842 pe14/Carry
*843 pe14/U1
*844 pe14/difference\[7\]
*845 pe14/U47
*846 pe14/N41
*847 pe14/n28
*848 pe14/U13
*849 pe14/n27
*850 pe14/U12
*851 pe14/n26
*852 pe14/U11
*853 pe14/n25
*854 pe14/U10
*855 pe14/n24
*856 pe14/U9
*857 pe14/n23
*858 pe14/U8
*859 pe14/n22
*860 pe14/U7
*861 pe11/U8
*862 pe9/U3
*863 pe7/U30
*864 pe3/U35
*865 pe2/U19
*866 pe1/U36
*867 pe4/U39
*868 pe5/U29
*869 pe6/U49
*870 pe0/U5
*871 pe12/U30
*872 pe8/U44
*873 pe13/U55
*874 pe10/U37
*875 pe14/n10
*876 pe14/U5
*877 pe14/n21
*878 pe14/U39
*879 pe14/n18
*880 pe14/U24
*881 pe14/n19
*882 pe14/U38
*883 Rpipe13\[5\]
*884 pe14/n20
*885 pe14/U35
*886 pe14/n16
*887 pe14/U37
*888 pe14/n17
*889 pe14/U36
*890 Rpipe13\[1\]
*891 Rpipe13\[3\]
*892 pe14/n14
*893 pe14/U32
*894 pe14/n12
*895 pe14/U34
*896 pe14/n13
*897 pe14/U33
*898 pe14/n15
*899 pe14/U31
*900 Rpipe13\[6\]
*901 Rpipe13\[7\]
*902 Rpipe13\[2\]
*903 Rpipe13\[4\]
*904 pe14/n9
*905 pe14/n29
*906 pe14/U14
*907 pe14/AccumulateIn\[0\]
*908 pe14/AccumulateIn\[7\]
*909 pe14/AccumulateIn\[6\]
*910 pe14/AccumulateIn\[5\]
*911 pe14/AccumulateIn\[4\]
*912 pe14/AccumulateIn\[3\]
*913 pe14/AccumulateIn\[2\]
*914 pe14/AccumulateIn\[1\]
*915 Rpipe13\[0\]
*916 pe13/add_16/carry\[1\]
*917 pe13/add_16/U2
*918 pe13/add_16/U1_1
*919 pe13/difference\[0\]
*920 pe13/add_16/U1
*921 pe13/U39
*922 PEOut\[104\]
*923 pe13/N34
*924 pe13/difference\[1\]
*925 pe13/U11
*926 PEOut\[105\]
*927 pe13/add_16/carry\[2\]
*928 pe13/add_16/U1_2
*929 pe13/N35
*930 PEOut\[106\]
*931 pe13/add_16/carry\[3\]
*932 pe13/add_16/U1_3
*933 pe13/difference\[2\]
*934 pe13/U45
*935 pe13/U12
*936 pe13/N36
*937 PEOut\[107\]
*938 pe13/add_16/carry\[4\]
*939 pe13/add_16/U1_4
*940 pe13/difference\[3\]
*941 pe13/U13
*942 pe13/N37
*943 PEOut\[108\]
*944 pe13/add_16/carry\[5\]
*945 pe13/add_16/U1_5
*946 pe13/difference\[4\]
*947 pe13/U15
*948 pe13/N38
*949 PEOut\[109\]
*950 pe13/add_16/carry\[6\]
*951 pe13/add_16/U1_6
*952 pe13/difference\[5\]
*953 pe13/U17
*954 pe13/N39
*955 PEOut\[110\]
*956 pe13/add_16/carry\[7\]
*957 pe13/add_16/U1_7
*958 pe13/difference\[6\]
*959 pe13/U38
*960 pe13/N40
*961 PEOut\[111\]
*962 pe13/Carry
*963 pe13/U35
*964 pe13/U14
*965 pe13/difference\[7\]
*966 pe13/U37
*967 pe13/N41
*968 pe13/n18
*969 pe13/U3
*970 pe13/n30
*971 pe13/U54
*972 pe13/n27
*973 pe13/n28
*974 pe13/U53
*975 pe13/U10
*976 Rpipe12\[5\]
*977 pe13/n29
*978 pe13/U50
*979 pe13/n25
*980 pe13/U52
*981 pe13/n26
*982 pe13/U51
*983 Rpipe12\[1\]
*984 Rpipe12\[3\]
*985 pe13/n23
*986 pe13/U47
*987 pe13/n21
*988 pe13/U49
*989 pe13/n22
*990 pe13/U48
*991 pe13/n24
*992 pe13/U46
*993 Rpipe12\[6\]
*994 Rpipe12\[7\]
*995 Rpipe12\[2\]
*996 Rpipe12\[4\]
*997 pe12/U3
*998 pe10/U15
*999 pe8/U35
*1000 pe2/U20
*1001 pe3/U34
*1002 pe1/U38
*1003 pe4/U30
*1004 pe6/U42
*1005 pe7/U29
*1006 pe0/U39
*1007 pe5/U28
*1008 pe9/U35
*1009 pe11/U32
*1010 pe13/n39
*1011 pe13/U26
*1012 pe13/n37
*1013 pe13/U5
*1014 pe13/n38
*1015 pe13/U7
*1016 pe13/n19
*1017 pe13/U25
*1018 pe13/n31
*1019 pe13/U21
*1020 pe13/AccumulateIn\[0\]
*1021 pe13/n4
*1022 pe13/U24
*1023 pe13/U4
*1024 Rpipe12\[0\]
*1025 pe13/AccumulateIn\[2\]
*1026 pe13/n33
*1027 pe13/n5
*1028 pe13/U8
*1029 pe13/U9
*1030 pe13/n36
*1031 pe13/n35
*1032 pe13/n34
*1033 pe13/n32
*1034 pe13/n2
*1035 pe13/AccumulateIn\[4\]
*1036 pe13/AccumulateIn\[3\]
*1037 pe13/AccumulateIn\[7\]
*1038 pe13/AccumulateIn\[6\]
*1039 pe13/AccumulateIn\[1\]
*1040 pe12/add_16/carry\[1\]
*1041 pe12/add_16/U3
*1042 pe12/add_16/U1_1
*1043 pe12/difference\[0\]
*1044 pe12/U59
*1045 pe12/add_16/U2
*1046 PEOut\[96\]
*1047 pe12/N34
*1048 PEOut\[97\]
*1049 pe12/add_16/carry\[2\]
*1050 pe12/add_16/U1_2
*1051 pe12/difference\[1\]
*1052 pe12/U44
*1053 pe12/N35
*1054 PEOut\[98\]
*1055 pe12/add_16/carry\[3\]
*1056 pe12/add_16/U1_3
*1057 pe12/difference\[2\]
*1058 pe12/U23
*1059 pe12/N36
*1060 pe12/U24
*1061 PEOut\[99\]
*1062 pe12/add_16/carry\[4\]
*1063 pe12/add_16/U1_4
*1064 pe12/difference\[3\]
*1065 pe12/U55
*1066 pe12/N37
*1067 PEOut\[100\]
*1068 pe12/add_16/carry\[5\]
*1069 pe12/add_16/U1_5
*1070 pe12/difference\[4\]
*1071 pe12/U56
*1072 pe12/N38
*1073 PEOut\[101\]
*1074 pe12/add_16/carry\[6\]
*1075 pe12/add_16/U1_6
*1076 pe12/difference\[5\]
*1077 pe12/U9
*1078 pe12/N39
*1079 PEOut\[102\]
*1080 pe12/add_16/carry\[7\]
*1081 pe12/add_16/U1_7
*1082 pe12/difference\[6\]
*1083 pe12/U57
*1084 pe12/N40
*1085 PEOut\[103\]
*1086 pe12/Carry
*1087 pe12/U8
*1088 pe12/U5
*1089 pe12/difference\[7\]
*1090 pe12/U58
*1091 pe12/N41
*1092 pe12/n43
*1093 pe12/n42
*1094 pe12/U36
*1095 pe12/n41
*1096 pe12/U35
*1097 pe12/n39
*1098 pe12/U33
*1099 pe12/n38
*1100 pe12/U32
*1101 pe12/n31
*1102 pe12/U54
*1103 pe12/U53
*1104 pe12/n32
*1105 pe12/U52
*1106 pe12/n34
*1107 pe12/U16
*1108 pe12/U12
*1109 pe12/U11
*1110 Rpipe11\[1\]
*1111 Rpipe11\[3\]
*1112 pe12/n29
*1113 pe12/U51
*1114 pe12/U48
*1115 pe12/n27
*1116 pe12/U50
*1117 pe12/n28
*1118 pe12/U49
*1119 pe12/n35
*1120 pe12/n30
*1121 pe12/U47
*1122 Rpipe11\[6\]
*1123 Rpipe11\[7\]
*1124 Rpipe11\[2\]
*1125 Rpipe11\[4\]
*1126 pe12/n25
*1127 pe12/U15
*1128 pe12/n36
*1129 pe12/AccumulateIn\[7\]
*1130 pe12/AccumulateIn\[6\]
*1131 pe12/AccumulateIn\[5\]
*1132 pe12/U34
*1133 pe12/n40
*1134 pe12/AccumulateIn\[4\]
*1135 pe12/AccumulateIn\[3\]
*1136 pe12/AccumulateIn\[2\]
*1137 pe12/U31
*1138 pe12/n37
*1139 pe12/n6
*1140 pe12/U21
*1141 pe12/n33
*1142 Rpipe11\[0\]
*1143 pe12/n4
*1144 pe12/n7
*1145 pe12/U13
*1146 pe12/n11
*1147 pe12/U22
*1148 pe12/n12
*1149 pe12/n10
*1150 Rpipe11\[5\]
*1151 pe12/n15
*1152 pe12/n5
*1153 pe12/n2
*1154 pe14/n42
*1155 pe11/add_16/carry\[1\]
*1156 pe11/add_16/U3
*1157 pe11/add_16/U1_1
*1158 PEOut\[88\]
*1159 pe11/add_16/U2
*1160 pe11/difference\[0\]
*1161 pe11/U49
*1162 pe11/N34
*1163 PEOut\[89\]
*1164 pe11/add_16/carry\[2\]
*1165 pe11/add_16/U1_2
*1166 pe11/difference\[1\]
*1167 pe11/U42
*1168 pe11/N35
*1169 PEOut\[90\]
*1170 pe11/add_16/carry\[3\]
*1171 pe11/add_16/U1_3
*1172 pe11/difference\[2\]
*1173 pe11/U43
*1174 pe11/N36
*1175 PEOut\[91\]
*1176 pe11/add_16/carry\[4\]
*1177 pe11/add_16/U1_4
*1178 pe11/difference\[3\]
*1179 pe11/U44
*1180 pe11/N37
*1181 PEOut\[92\]
*1182 pe11/add_16/carry\[5\]
*1183 pe11/add_16/U1_5
*1184 pe11/difference\[4\]
*1185 pe11/U45
*1186 pe11/N38
*1187 PEOut\[93\]
*1188 pe11/add_16/carry\[6\]
*1189 pe11/add_16/U1_6
*1190 pe11/difference\[5\]
*1191 pe11/U46
*1192 pe11/N39
*1193 PEOut\[94\]
*1194 pe11/add_16/carry\[7\]
*1195 pe11/add_16/U1_7
*1196 pe11/difference\[6\]
*1197 pe11/U47
*1198 pe11/N40
*1199 PEOut\[95\]
*1200 pe11/Carry
*1201 pe11/U14
*1202 pe11/difference\[7\]
*1203 pe11/U48
*1204 pe11/N41
*1205 pe11/n31
*1206 pe11/U23
*1207 pe11/n30
*1208 pe11/U22
*1209 pe11/n29
*1210 pe11/U21
*1211 pe11/n28
*1212 pe11/U20
*1213 pe11/n27
*1214 pe11/U19
*1215 pe11/n26
*1216 pe11/U18
*1217 pe11/n25
*1218 pe11/U17
*1219 pe11/n24
*1220 pe11/U16
*1221 pe11/n19
*1222 pe11/U40
*1223 pe11/U39
*1224 pe11/n20
*1225 pe11/U38
*1226 pe11/n22
*1227 pe11/U9
*1228 pe11/U1
*1229 Rpipe10\[1\]
*1230 Rpipe10\[3\]
*1231 pe11/n17
*1232 pe11/U37
*1233 pe11/U34
*1234 pe11/n15
*1235 pe11/U36
*1236 pe11/n16
*1237 pe11/U35
*1238 pe11/n23
*1239 pe11/n18
*1240 pe11/U33
*1241 Rpipe10\[6\]
*1242 Rpipe10\[7\]
*1243 Rpipe10\[2\]
*1244 Rpipe10\[4\]
*1245 pe11/n2
*1246 pe11/n6
*1247 pe11/AccumulateIn\[0\]
*1248 pe11/AccumulateIn\[7\]
*1249 pe11/AccumulateIn\[6\]
*1250 pe11/AccumulateIn\[5\]
*1251 pe11/AccumulateIn\[4\]
*1252 pe11/AccumulateIn\[3\]
*1253 pe11/AccumulateIn\[2\]
*1254 pe11/AccumulateIn\[1\]
*1255 pe11/n21
*1256 Rpipe10\[5\]
*1257 Rpipe10\[0\]
*1258 pe11/U4
*1259 pe11/n5
*1260 pe10/add_16/carry\[1\]
*1261 pe10/add_16/U4
*1262 pe10/add_16/U1_1
*1263 PEOut\[80\]
*1264 pe10/add_16/U3
*1265 pe10/difference\[0\]
*1266 pe10/U36
*1267 pe10/N34
*1268 pe10/difference\[1\]
*1269 pe10/U48
*1270 PEOut\[81\]
*1271 pe10/add_16/carry\[2\]
*1272 pe10/add_16/U1_2
*1273 pe10/N35
*1274 PEOut\[82\]
*1275 pe10/add_16/carry\[3\]
*1276 pe10/add_16/U1_3
*1277 pe10/difference\[2\]
*1278 pe10/U16
*1279 pe10/N36
*1280 PEOut\[83\]
*1281 pe10/add_16/carry\[4\]
*1282 pe10/add_16/U1_4
*1283 pe10/difference\[3\]
*1284 pe10/U18
*1285 pe10/N37
*1286 PEOut\[84\]
*1287 pe10/add_16/carry\[5\]
*1288 pe10/add_16/U1_5
*1289 pe10/difference\[4\]
*1290 pe10/U49
*1291 pe10/N38
*1292 PEOut\[85\]
*1293 pe10/add_16/carry\[6\]
*1294 pe10/add_16/U1_6
*1295 pe10/difference\[5\]
*1296 pe10/U17
*1297 pe10/N39
*1298 PEOut\[86\]
*1299 pe10/add_16/carry\[7\]
*1300 pe10/add_16/U1_7
*1301 pe10/difference\[6\]
*1302 pe10/U26
*1303 pe10/N40
*1304 PEOut\[87\]
*1305 pe10/Carry
*1306 pe10/U33
*1307 pe10/U10
*1308 pe10/difference\[7\]
*1309 pe10/U50
*1310 pe10/N41
*1311 pe10/n31
*1312 pe10/U24
*1313 pe10/n28
*1314 pe10/U34
*1315 pe10/n25
*1316 pe10/U27
*1317 Rpipe9\[1\]
*1318 pe10/U47
*1319 pe10/n23
*1320 pe10/U11
*1321 Rpipe9\[3\]
*1322 pe10/U46
*1323 pe10/n24
*1324 Rpipe9\[6\]
*1325 pe10/U45
*1326 pe10/n19
*1327 pe10/U8
*1328 Rpipe9\[7\]
*1329 pe10/U44
*1330 pe10/n20
*1331 Rpipe9\[2\]
*1332 pe10/U43
*1333 pe10/n21
*1334 Rpipe9\[4\]
*1335 pe10/U42
*1336 pe10/n22
*1337 pe10/n5
*1338 pe10/U12
*1339 pe10/n32
*1340 pe10/U25
*1341 pe10/n11
*1342 pe10/U23
*1343 pe10/U29
*1344 pe10/AccumulateIn\[4\]
*1345 pe10/AccumulateIn\[5\]
*1346 pe10/n29
*1347 pe10/AccumulateIn\[3\]
*1348 pe10/U28
*1349 pe10/n2
*1350 pe10/U21
*1351 pe10/n27
*1352 pe10/AccumulateIn\[1\]
*1353 pe10/n30
*1354 pe10/AccumulateIn\[0\]
*1355 pe10/AccumulateIn\[7\]
*1356 pe10/AccumulateIn\[6\]
*1357 pe10/AccumulateIn\[2\]
*1358 pe10/n26
*1359 pe10/n3
*1360 pe10/U1
*1361 pe10/n7
*1362 pe10/n6
*1363 pe10/U7
*1364 pe10/n8
*1365 Rpipe9\[5\]
*1366 Rpipe9\[0\]
*1367 pe10/U5
*1368 pe10/n10
*1369 pe9/add_16/carry\[1\]
*1370 pe9/add_16/U2
*1371 pe9/add_16/U1_1
*1372 PEOut\[72\]
*1373 pe9/add_16/U1
*1374 pe9/difference\[0\]
*1375 pe9/U16
*1376 pe9/N34
*1377 PEOut\[73\]
*1378 pe9/add_16/carry\[2\]
*1379 pe9/add_16/U1_2
*1380 pe9/difference\[1\]
*1381 pe9/U12
*1382 pe9/N35
*1383 PEOut\[74\]
*1384 pe9/add_16/carry\[3\]
*1385 pe9/add_16/U1_3
*1386 pe9/difference\[2\]
*1387 pe9/U45
*1388 pe9/N36
*1389 PEOut\[75\]
*1390 pe9/add_16/carry\[4\]
*1391 pe9/add_16/U1_4
*1392 pe9/difference\[3\]
*1393 pe9/U46
*1394 pe9/N37
*1395 PEOut\[76\]
*1396 pe9/add_16/carry\[5\]
*1397 pe9/add_16/U1_5
*1398 pe9/difference\[4\]
*1399 pe9/U8
*1400 pe9/N38
*1401 PEOut\[77\]
*1402 pe9/add_16/carry\[6\]
*1403 pe9/add_16/U1_6
*1404 pe9/difference\[5\]
*1405 pe9/U9
*1406 pe9/N39
*1407 PEOut\[78\]
*1408 pe9/add_16/carry\[7\]
*1409 pe9/add_16/U1_7
*1410 pe9/difference\[6\]
*1411 pe9/U10
*1412 pe9/N40
*1413 PEOut\[79\]
*1414 pe9/Carry
*1415 pe9/U17
*1416 pe9/U4
*1417 pe9/difference\[7\]
*1418 pe9/U11
*1419 pe9/N41
*1420 pe9/n23
*1421 pe9/U20
*1422 pe9/n22
*1423 pe9/U19
*1424 pe9/n20
*1425 pe9/U44
*1426 pe9/n17
*1427 pe9/n18
*1428 pe9/U43
*1429 Rpipe8\[5\]
*1430 pe9/n19
*1431 pe9/U40
*1432 pe9/n15
*1433 pe9/U42
*1434 pe9/n16
*1435 pe9/U41
*1436 Rpipe8\[1\]
*1437 Rpipe8\[3\]
*1438 pe9/n13
*1439 pe9/U37
*1440 pe9/n11
*1441 pe9/U39
*1442 pe9/n12
*1443 pe9/U38
*1444 pe9/n14
*1445 pe9/U36
*1446 Rpipe8\[6\]
*1447 Rpipe8\[7\]
*1448 Rpipe8\[2\]
*1449 Rpipe8\[4\]
*1450 pe9/AccumulateIn\[0\]
*1451 pe9/U25
*1452 pe9/n3
*1453 pe9/U21
*1454 pe9/U18
*1455 pe9/n28
*1456 pe9/AccumulateIn\[7\]
*1457 pe9/U24
*1458 pe9/n2
*1459 pe9/U23
*1460 pe9/U22
*1461 pe9/n27
*1462 pe9/AccumulateIn\[6\]
*1463 pe9/n26
*1464 pe9/AccumulateIn\[5\]
*1465 pe9/n25
*1466 pe9/AccumulateIn\[4\]
*1467 pe9/n24
*1468 pe9/AccumulateIn\[3\]
*1469 pe9/AccumulateIn\[2\]
*1470 pe9/AccumulateIn\[1\]
*1471 pe9/n21
*1472 Rpipe8\[0\]
*1473 pe8/add_16/carry\[1\]
*1474 pe8/add_16/U3
*1475 pe8/add_16/U1_1
*1476 PEOut\[64\]
*1477 pe8/add_16/U2
*1478 pe8/difference\[0\]
*1479 pe8/U3
*1480 pe8/N34
*1481 PEOut\[65\]
*1482 pe8/add_16/carry\[2\]
*1483 pe8/add_16/U1_2
*1484 pe8/difference\[1\]
*1485 pe8/U45
*1486 pe8/N35
*1487 PEOut\[66\]
*1488 pe8/add_16/carry\[3\]
*1489 pe8/add_16/U1_3
*1490 pe8/difference\[2\]
*1491 pe8/U46
*1492 pe8/N36
*1493 PEOut\[67\]
*1494 pe8/add_16/carry\[4\]
*1495 pe8/add_16/U1_4
*1496 pe8/difference\[3\]
*1497 pe8/U47
*1498 pe8/N37
*1499 PEOut\[68\]
*1500 pe8/add_16/carry\[5\]
*1501 pe8/add_16/U1_5
*1502 pe8/difference\[4\]
*1503 pe8/U10
*1504 pe8/N38
*1505 PEOut\[69\]
*1506 pe8/add_16/carry\[6\]
*1507 pe8/add_16/U1_6
*1508 pe8/difference\[5\]
*1509 pe8/U11
*1510 pe8/N39
*1511 PEOut\[70\]
*1512 pe8/add_16/carry\[7\]
*1513 pe8/add_16/U1_7
*1514 pe8/difference\[6\]
*1515 pe8/U12
*1516 pe8/N40
*1517 PEOut\[71\]
*1518 pe8/Carry
*1519 pe8/U21
*1520 pe8/U13
*1521 pe8/difference\[7\]
*1522 pe8/U48
*1523 pe8/N41
*1524 pe8/n29
*1525 pe8/U27
*1526 pe8/n25
*1527 pe8/U24
*1528 pe8/n24
*1529 pe8/U23
*1530 pe8/n23
*1531 pe8/U22
*1532 pe8/n17
*1533 pe8/U43
*1534 pe8/U42
*1535 pe8/n18
*1536 pe8/U41
*1537 pe8/n20
*1538 pe8/U18
*1539 pe8/U15
*1540 Rpipe7\[1\]
*1541 Rpipe7\[3\]
*1542 pe8/n15
*1543 pe8/U40
*1544 pe8/U37
*1545 pe8/n13
*1546 pe8/U39
*1547 pe8/n14
*1548 pe8/U38
*1549 pe8/n21
*1550 pe8/n16
*1551 pe8/U36
*1552 Rpipe7\[6\]
*1553 Rpipe7\[7\]
*1554 Rpipe7\[2\]
*1555 Rpipe7\[4\]
*1556 pe8/n2
*1557 pe8/n5
*1558 pe8/U26